*Heading
** Job name: Job-CF-R-E1_E2_100 Model name: Model-1
** Generated by: Abaqus/CAE 2017
*Preprint, echo=NO, model=NO, history=NO, contact=NO
**
** PARTS
**
*Part, name=A65C
*End Part
**  
**
** ASSEMBLY
**
*Assembly, name=Assembly
**  
*Instance, name=A65C-1, part=A65C
*Node
      1,  -281.326843,  -321.894012,  -44.8245659
      2,  -284.412964,  -322.388794,   -41.115345
      3,   -261.75885,   -270.17746,  -7.71244383
      4,  -258.693756,   -264.98764,  -4.46320868
      5,  -256.097443,  -265.015503,  -9.46108627
      6,  -254.580063,  -262.526581,  -7.96938038
      7,  -289.649841,  -381.847931,  -79.3231201
      8,  -293.005768,   -382.45105,  -76.3621826
      9,  -284.538391,  -442.301727,  -106.743568
     10,  -287.912903,  -442.869598,  -104.362442
     11,  -271.800201,  -504.738434,  -125.056465
     12,  -268.493225,  -504.255585,  -126.989372
     13,  -234.832672,  -571.738525,  -123.854858
     14,  -237.649384,  -572.035095,  -122.478081
     15,   57.1115265,  -267.042175,   284.233124
     16,   88.1402512,  -198.797333,   257.108185
     17,   26.2145023,   -343.73819,   298.109131
     18,  -6.36802816,  -429.953064,   292.472839
     19,  -46.6964912,  -530.173645,    247.26683
     20,  -146.089355,  -649.580505,   14.0309124
** ... 25840 like lines cut
*Element, type=STRI65
 1,    1,    2,   26, 6493, 6494, 6495
 2,   26,   37,    1, 6496, 6497, 6495
 3,   37,   26,   27, 6496, 6498, 6499
 4,   27,   36,   37, 6500, 6501, 6499
 5,   36,   27,   28, 6500, 6502, 6503
 6,   28,   35,   36, 6504, 6505, 6503
 7,   35,   28,   29, 6504, 6506, 6507
 8,   29,   34,   35, 6508, 6509, 6507
 9,   34,   29,   30, 6508, 6510, 6511
10,   30,   33,   34, 6512, 6513, 6511
11,   33,   30,   31, 6512, 6514, 6515
12,   31,   32,   33, 6516, 6517, 6515
13,   32,   31,    3, 6516, 6518, 6519
14,    3,    5,   32, 6520, 6521, 6519
15,    5,    3,    4, 6520, 6522, 6523
16,    4,    6,    5, 6524, 6525, 6523
17,    7,    8,   49, 6526, 6527, 6528
18,    8,   38,   49, 6529, 6530, 6527
19,   49,   38,   48, 6530, 6531, 6532
20,   38,   39,   48, 6533, 6534, 6531
** ... 12857 like lines cut
*Nset, nset=Primary_Axis_Region
    5,    6, 6525
*Elset, elset=Primary_Axis_Region
   16, 9541
*Elset, elset=_Normal_Axis_Region_SPOS, internal, generate
     1,  12877,      1
*Surface, type=ELEMENT, name=Normal_Axis_Region
_Normal_Axis_Region_SPOS, SPOS
*Distribution, name=Ori-1-DiscOrient, location=ELEMENT, Table=Ori-1-DiscOrient_Table
** Description: Distribution generated from Discrete Orientation
,           1.,           0.,           0.,           0.,           1.,           0.
1, -0.386017560958862, -0.828153610229492, -0.406388968229294, -0.628912091255188, -0.0860304683446884, 0.772701919078827
2, -0.386017560958862, -0.828153610229492, -0.406388968229294, -0.628912091255188, -0.0860304683446884, 0.772701919078827
3, -0.381839722394943, -0.827516674995422, -0.411599963903427, -0.58991801738739, -0.1246093288064, 0.797790169715881
4, -0.386017560958862, -0.828153610229492, -0.406388968229294, -0.628912091255188, -0.0860304683446884, 0.772701919078827
5, -0.381839722394943, -0.827516674995422, -0.411599963903427, -0.58991801738739, -0.1246093288064, 0.797790169715881
6, -0.381839722394943, -0.827516674995422, -0.411599963903427, -0.58991801738739, -0.1246093288064, 0.797790169715881
7, -0.381839722394943, -0.827516674995422, -0.411599963903427, -0.58991801738739, -0.1246093288064, 0.797790169715881
8, -0.381839722394943, -0.827516674995422, -0.411599963903427, -0.58991801738739, -0.1246093288064, 0.797790169715881
9, -0.438230395317078, -0.780464589595795, -0.445902615785599, -0.590713202953339, -0.123847737908363, 0.797320365905762
10, -0.438230395317078, -0.780464589595795, -0.445902615785599, -0.590713202953339, -0.123847737908363, 0.797320365905762
11, -0.438230395317078, -0.780464589595795, -0.445902615785599, -0.590713202953339, -0.123847737908363, 0.797320365905762
12, -0.437170892953873, -0.781301379203796, -0.44547700881958, -0.586888909339905, -0.127501666545868, 0.799565315246582
13, -0.437170892953873, -0.781301379203796, -0.44547700881958, -0.586888909339905, -0.127501666545868, 0.799565315246582
14, -0.437170892953873, -0.781301379203796, -0.44547700881958, -0.586888909339905, -0.127501666545868, 0.799565315246582
15, -0.459229677915573, -0.760917603969574, -0.458380371332169, -0.563317596912384, -0.149537548422813, 0.812595725059509
16, -0.463114976882935, -0.760015249252319, -0.455962151288986, -0.561790466308594, -0.146180137991905, 0.814262211322784
17, -0.284749358892441, -0.915923416614532, -0.282846391201019, -0.708715677261353, 0.00246862811036408, 0.705489933490753
18, -0.284749358892441, -0.915923416614532, -0.282846391201019, -0.708715677261353, 0.00246862811036408, 0.705489933490753
19, -0.284749358892441, -0.915923416614532, -0.282846391201019, -0.708715677261353, 0.00246862811036408, 0.705489933490753
20, -0.265901565551758, -0.919438540935516, -0.289705365896225, -0.674562454223633, -0.0372252948582172, 0.737278699874878
** ... 12857 like lines cut
*Orientation, name=Ori-1, system=RECTANGULAR
Ori-1-DiscOrient
3, 0.
** Region: (Layup-CF-R-E1_E2_100-1: Generated From Layup)
*Elset, elset=Layup-CF-R-E1_E2_100-1, generate
     1,  12877,      1
** Section: Layup-CF-R-E1_E2_100-1
*Shell Section, elset=Layup-CF-R-E1_E2_100-1, composite, orientation=Ori-1, offset=SPOS, layup=Layup-CF-R-E1_E2_100
5., 3, CF-R-E1_E2_100, 0., Ply-1
*End Instance
**  
*Nset, nset=BC-Edges, instance=A65C-1
     4,     6,    22,    23,    25,   715,   716,   717,   718,   719,   720,   721,   722,   723,   724,   725
   726,   727,   728,   729,   730,   731,   732,   733,   734,   735,   736,   737,   738,   739,   740,   741
   742,   743,   744,   745,   746,   747,   748,   749,   750,   751,   752,   753,   754,   755,   756,   757
   758,   759,   760,   761,   762,   763,   764,   765,   766,   841,   842,   843,   844,   845,   846,   847
   848,   849,   850,   851,   852,   853,   854,   855,   856,   857,   858,   859,   860,   861,   862,   863
   864,   865,   866,   867,   868,   869,   870,   871,   872,   873,   874,   875,   876,   877,   878,   879
   880,   881,   882,   883,   884,   885,   886,   887,   888,  6524, 16156, 16181, 16206, 16314, 16376, 16384
 16387, 16388, 16390, 16393, 16436, 16485, 16500, 16575, 16646, 16739, 16760, 16767, 16821, 16867, 16923, 17029
 17192, 17266, 17304, 17306, 17307, 17310, 17311, 17313, 17318, 17322, 17328, 17331, 17342, 17849, 17852, 17857
 17859, 17861, 17880, 18259, 18262, 18276, 18278, 18312, 18448, 18449, 18467, 18830, 18833, 18837, 18867, 18883
 20910, 20984, 21127, 21148, 21478, 21480, 21486, 21496, 21576, 21603, 21604, 21616, 21639, 21641, 21644, 21647
 21650, 21685, 21690, 21693, 21705, 21708, 21712, 21715, 22671, 22759, 22910, 23154, 23159, 23162, 23165, 23169
 23176, 23178, 23382, 23383, 23476, 23477, 23480, 23481, 23482, 23483, 23485, 23486, 23487, 23488, 23491, 23492
 23607, 23628
*Elset, elset=BC-Edges, instance=A65C-1
    16,  6344,  6355,  6365,  6408,  6431,  6434,  6436,  6437,  6438,  6439,  6454,  6473,  6479,  6509,  6536
  6570,  6577,  6581,  6606,  6628,  6661,  6751,  6875,  6935,  6972,  6974,  6976,  6977,  6978,  6979,  6983
  6986,  6991,  6994,  6998,  7312,  7314,  7317,  7321,  7322,  7337,  7578,  7579,  7589,  7590,  7610,  7712
  7713,  7722,  7985,  7990,  8000,  8051,  8083,  9455,  9482,  9534,  9542,  9681,  9682,  9685,  9690,  9722
  9732,  9733,  9737,  9747,  9748,  9749,  9750,  9751,  9763,  9765,  9766,  9770,  9772,  9774,  9776, 10338
 10430, 10551, 10754, 10757, 10759, 10762, 10765, 10771, 10776, 10935, 10936, 11036, 11037, 11040, 11044, 11045
 11046, 11048, 11052, 11053, 11054, 11056, 11057, 11263, 11324
*Nset, nset=BC_edges_extra, instance=A65C-1
     4,     5,     6,    22,    23,    25,   715,   716,   717,   718,   719,   720,   721,   722,   723,   724
   725,   726,   727,   728,   729,   730,   731,   732,   733,   734,   735,   736,   737,   738,   739,   740
   741,   742,   743,   744,   745,   746,   747,   748,   749,   750,   751,   752,   753,   754,   755,   756
   757,   758,   759,   760,   761,   762,   763,   764,   765,   766,   841,   842,   843,   844,   845,   846
   847,   848,   849,   850,   851,   852,   853,   854,   855,   856,   857,   858,   859,   860,   861,   862
   863,   864,   865,   866,   867,   868,   869,   870,   871,   872,   873,   874,   875,   876,   877,   878
   879,   880,   881,   882,   883,   884,   885,   886,   887,   888,  6524,  6525, 16156, 16181, 16206, 16314
 16376, 16384, 16387, 16388, 16390, 16393, 16436, 16485, 16500, 16575, 16646, 16739, 16760, 16767, 16821, 16867
 16923, 17029, 17192, 17266, 17304, 17306, 17307, 17310, 17311, 17313, 17318, 17322, 17328, 17331, 17342, 17849
 17852, 17857, 17859, 17861, 17880, 18259, 18262, 18276, 18278, 18312, 18448, 18449, 18467, 18830, 18833, 18837
 18867, 18883, 20910, 20984, 21127, 21148, 21478, 21480, 21486, 21496, 21576, 21603, 21604, 21616, 21639, 21641
 21644, 21647, 21650, 21685, 21690, 21693, 21705, 21708, 21712, 21715, 22671, 22759, 22910, 23154, 23159, 23162
 23165, 23169, 23176, 23178, 23382, 23383, 23476, 23477, 23480, 23481, 23482, 23483, 23485, 23486, 23487, 23488
 23491, 23492, 23607, 23628
*Elset, elset=BC_edges_extra, instance=A65C-1
    16,  6344,  6355,  6365,  6408,  6431,  6434,  6436,  6437,  6438,  6439,  6454,  6473,  6479,  6509,  6536
  6570,  6577,  6581,  6606,  6628,  6661,  6751,  6875,  6935,  6972,  6974,  6976,  6977,  6978,  6979,  6983
  6986,  6991,  6994,  6998,  7312,  7314,  7317,  7321,  7322,  7337,  7578,  7579,  7589,  7590,  7610,  7712
  7713,  7722,  7985,  7990,  8000,  8051,  8083,  9455,  9482,  9534,  9541,  9542,  9681,  9682,  9685,  9690
  9722,  9732,  9733,  9737,  9747,  9748,  9749,  9750,  9751,  9763,  9765,  9766,  9770,  9772,  9774,  9776
 10338, 10430, 10551, 10754, 10757, 10759, 10762, 10765, 10771, 10776, 10935, 10936, 11036, 11037, 11040, 11044
 11045, 11046, 11048, 11052, 11053, 11054, 11056, 11057, 11263, 11324
*Nset, nset=BC_edges_single, instance=A65C-1
    5,    6, 6525
*Elset, elset=BC_edges_single, instance=A65C-1
   16, 9541
*Nset, nset=PROFILE-R_5, instance=A65C-1
     1,     2,    16,   135,   136,   137,   138,   139,   140,   141,   142,   143,   144,   145,   146,   147
   148,   149,   150,   151,   152,   153,   154,   155,   156,   157,   158,   159,   160,   161,   162,   163
   164,   165,   166,   167,   168,   169,   170,   171,   172,   173,   174,   175,   176,   177,   178,   179
   180,   181,   182,   183,   349,   350,   351,   352,   353,   354,   355,   356,   357,   358,   359,   360
   361,   362,   363,   364,   365,   366,   367,   368,   369,   370,   371,   372,   373,   374,   375,   376
   377,   378,   379,   380,   381,   382,   383,   384,   385,   386,   387,   388,   389,   390,   391,   392
   393,   394,   395,   396,   397,  6493,  7575,  7578,  7581,  7584,  7587,  7590,  7593,  7596,  7599,  7602
  7605,  7608,  7611,  7614,  7617,  7620,  7623,  7626,  7629,  7632,  7635,  7638,  7641,  7644,  7647,  7650
  7653,  7656,  7659,  7662,  7665,  7668,  7671,  7674,  7677,  7680,  7683,  7686,  7689,  7692,  7695,  7698
  7701,  7704,  7707,  7710,  7713,  7716,  7719,  7722, 10776, 10779, 10782, 10785, 10788, 10791, 10794, 10797
 10800, 10803, 10806, 10809, 10812, 10815, 10818, 10821, 10824, 10827, 10830, 10833, 10836, 10839, 10842, 10845
 10848, 10851, 10854, 10857, 10860, 10863, 10866, 10869, 10872, 10875, 10878, 10881, 10884, 10887, 10890, 10893
 10896, 10899, 10902, 10905, 10908, 10911, 10914, 10917, 10920, 10922
*Elset, elset=PROFILE-R_5, instance=A65C-1
     1,    30,   666,   668,   670,   672,   674,   676,   678,   680,   682,   684,   686,   688,   690,   692
   694,   696,   698,   700,   702,   704,   706,   708,   710,   712,   714,   716,   718,   720,   722,   724
   726,   728,   730,   732,   734,   736,   738,   740,   742,   744,   746,   748,   750,   752,   754,   756
   758,   760,   762,   764,  2766,  2768,  2770,  2772,  2774,  2776,  2778,  2780,  2782,  2784,  2786,  2788
  2790,  2792,  2794,  2796,  2798,  2800,  2802,  2804,  2806,  2808,  2810,  2812,  2814,  2816,  2818,  2820
  2822,  2824,  2826,  2828,  2830,  2832,  2834,  2836,  2838,  2840,  2842,  2844,  2846,  2848,  2850,  2852
  2854,  2856,  2858,  2860,  2862,  2864,  6346,  6353,  6356,  6357,  6358,  6369,  6370,  6374,  6377,  6378
  6379,  6383,  6388,  6389,  6396,  6399,  6400,  6401,  6590,  6613,  6621,  6626,  6629,  6641,  6654,  6773
  6780,  6788,  6789,  6791,  6796,  6999,  7001,  7041,  7045,  7058,  7185,  7186,  7187,  7408,  7446,  7447
  7448,  7449,  7450,  7857,  8134,  8140,  8148,  8170,  9407,  9415,  9416,  9441,  9469,  9507,  9566,  9616
  9617,  9660,  9661,  9664,  9668,  9669,  9671,  9672,  9786,  9798, 10012, 10123, 10278, 10280, 10281, 10484
 10485, 10618, 10621, 10622, 10623, 10624, 10811, 10819, 10821, 10824, 10827, 10859, 10862, 10863, 10872, 10950
 10952, 10955, 10961, 10962, 10963, 10965, 11170, 11294, 11298, 11314
*Nset, nset=PROFILE-R_6, instance=A65C-1
     7,     8,    15,    80,    81,    82,    83,    84,    85,    86,    87,    88,    89,    90,    91,    92
    93,    94,    95,    96,    97,    98,    99,   100,   101,   102,   103,   104,   105,   106,   107,   108
   109,   110,   111,   112,   113,   114,   115,   116,   117,   118,   119,   120,   121,   122,   123,   124
   125,   126,   127,   128,   300,   301,   302,   303,   304,   305,   306,   307,   308,   309,   310,   311
   312,   313,   314,   315,   316,   317,   318,   319,   320,   321,   322,   323,   324,   325,   326,   327
   328,   329,   330,   331,   332,   333,   334,   335,   336,   337,   338,   339,   340,   341,   342,   343
   344,   345,   346,   347,   348,  6526,  6623,  6627,  6631,  6635,  6639,  6643,  6647,  6651,  6655,  6659
  6663,  6667,  6671,  6675,  6679,  6683,  6687,  6691,  6695,  6699,  6703,  6707,  6711,  6715,  6719,  6723
  6727,  6731,  6735,  6739,  6743,  6747,  6751,  6755,  6759,  6763,  6767,  6771,  6775,  6779,  6783,  6787
  6791,  6795,  6799,  6803,  6807,  6811,  6815,  6819,  9830,  9834,  9838,  9842,  9846,  9850,  9854,  9858
  9862,  9866,  9870,  9874,  9878,  9882,  9886,  9890,  9894,  9898,  9902,  9906,  9910,  9914,  9918,  9922
  9926,  9930,  9934,  9938,  9942,  9946,  9950,  9954,  9958,  9962,  9966,  9970,  9974,  9978,  9982,  9986
  9990,  9994,  9998, 10002, 10006, 10010, 10014, 10018, 10022, 10026
*Elset, elset=PROFILE-R_6, instance=A65C-1
   17,   31,   65,   67,   69,   71,   73,   75,   77,   79,   81,   83,   85,   87,   89,   91
   93,   95,   97,   99,  101,  103,  105,  107,  109,  111,  113,  115,  117,  119,  121,  123
  125,  127,  129,  131,  133,  135,  137,  139,  141,  143,  145,  147,  149,  151,  153,  155
  157,  159,  161,  163,  765,  767,  769,  771,  773,  775,  777,  779,  781,  783,  785,  787
  789,  791,  793,  795,  797,  799,  801,  803,  805,  807,  809,  811,  813,  815,  817,  819
  821,  823,  825,  827,  829,  831,  833,  835,  837,  839,  841,  843,  845,  847,  849,  851
  853,  855,  857,  859,  861,  863, 2165, 2167, 2169, 2171, 2173, 2175, 2177, 2179, 2181, 2183
 2185, 2187, 2189, 2191, 2193, 2195, 2197, 2199, 2201, 2203, 2205, 2207, 2209, 2211, 2213, 2215
 2217, 2219, 2221, 2223, 2225, 2227, 2229, 2231, 2233, 2235, 2237, 2239, 2241, 2243, 2245, 2247
 2249, 2251, 2253, 2255, 2257, 2259, 2261, 2263, 2865, 2867, 2869, 2871, 2873, 2875, 2877, 2879
 2881, 2883, 2885, 2887, 2889, 2891, 2893, 2895, 2897, 2899, 2901, 2903, 2905, 2907, 2909, 2911
 2913, 2915, 2917, 2919, 2921, 2923, 2925, 2927, 2929, 2931, 2933, 2935, 2937, 2939, 2941, 2943
 2945, 2947, 2949, 2951, 2953, 2955, 2957, 2959, 2961, 2963
*Nset, nset=PROFILE-R_7, instance=A65C-1
     9,    10,    17,   184,   185,   186,   187,   188,   189,   190,   191,   192,   193,   194,   195,   196
   197,   198,   199,   200,   201,   202,   203,   204,   205,   206,   207,   208,   209,   210,   211,   212
   213,   214,   215,   216,   217,   218,   219,   220,   221,   222,   223,   224,   225,   226,   227,   228
   229,   230,   231,   232,   398,   399,   400,   401,   402,   403,   404,   405,   406,   407,   408,   409
   410,   411,   412,   413,   414,   415,   416,   417,   418,   419,   420,   421,   422,   423,   424,   425
   426,   427,   428,   429,   430,   431,   432,   433,   434,   435,   436,   437,   438,   439,   440,   441
   442,   443,   444,   445,   446,  6581,  8626,  8629,  8632,  8635,  8638,  8641,  8644,  8647,  8650,  8653
  8656,  8659,  8662,  8665,  8668,  8671,  8674,  8677,  8680,  8683,  8686,  8689,  8692,  8695,  8698,  8701
  8704,  8707,  8710,  8713,  8716,  8719,  8722,  8725,  8728,  8731,  8734,  8737,  8740,  8743,  8746,  8749
  8752,  8755,  8758,  8761,  8764,  8767,  8770,  8772, 11819, 11822, 11825, 11828, 11831, 11834, 11837, 11840
 11843, 11846, 11849, 11852, 11855, 11858, 11861, 11864, 11867, 11870, 11873, 11876, 11879, 11882, 11885, 11888
 11891, 11894, 11897, 11900, 11903, 11906, 11909, 11912, 11915, 11918, 11921, 11924, 11927, 11930, 11933, 11936
 11939, 11942, 11945, 11948, 11951, 11954, 11957, 11960, 11963, 11965
*Elset, elset=PROFILE-R_7, instance=A65C-1
   44, 1366, 1368, 1370, 1372, 1374, 1376, 1378, 1380, 1382, 1384, 1386, 1388, 1390, 1392, 1394
 1396, 1398, 1400, 1402, 1404, 1406, 1408, 1410, 1412, 1414, 1416, 1418, 1420, 1422, 1424, 1426
 1428, 1430, 1432, 1434, 1436, 1438, 1440, 1442, 1444, 1446, 1448, 1450, 1452, 1454, 1456, 1458
 1460, 1462, 1464, 2066, 2068, 2070, 2072, 2074, 2076, 2078, 2080, 2082, 2084, 2086, 2088, 2090
 2092, 2094, 2096, 2098, 2100, 2102, 2104, 2106, 2108, 2110, 2112, 2114, 2116, 2118, 2120, 2122
 2124, 2126, 2128, 2130, 2132, 2134, 2136, 2138, 2140, 2142, 2144, 2146, 2148, 2150, 2152, 2154
 2156, 2158, 2160, 2162, 2164, 3466, 3468, 3470, 3472, 3474, 3476, 3478, 3480, 3482, 3484, 3486
 3488, 3490, 3492, 3494, 3496, 3498, 3500, 3502, 3504, 3506, 3508, 3510, 3512, 3514, 3516, 3518
 3520, 3522, 3524, 3526, 3528, 3530, 3532, 3534, 3536, 3538, 3540, 3542, 3544, 3546, 3548, 3550
 3552, 3554, 3556, 3558, 3560, 3562, 3564, 5166, 5168, 5170, 5172, 5174, 5176, 5178, 5180, 5182
 5184, 5186, 5188, 5190, 5192, 5194, 5196, 5198, 5200, 5202, 5204, 5206, 5208, 5210, 5212, 5214
 5216, 5218, 5220, 5222, 5224, 5226, 5228, 5230, 5232, 5234, 5236, 5238, 5240, 5242, 5244, 5246
 5248, 5250, 5252, 5254, 5256, 5258, 5260, 5262, 5264, 6278
*Nset, nset=PROFILE-R_8, instance=A65C-1
    11,    12,    18,   239,   240,   241,   242,   243,   244,   245,   246,   247,   248,   249,   250,   251
   252,   253,   254,   255,   256,   257,   258,   259,   260,   261,   262,   263,   264,   265,   266,   267
   268,   269,   270,   271,   272,   273,   274,   275,   276,   277,   278,   279,   280,   281,   282,   283
   284,   285,   286,   287,   447,   448,   449,   450,   451,   452,   453,   454,   455,   456,   457,   458
   459,   460,   461,   462,   463,   464,   465,   466,   467,   468,   469,   470,   471,   472,   473,   474
   475,   476,   477,   478,   479,   480,   481,   482,   483,   484,   485,   486,   487,   488,   489,   490
   491,   492,   493,   494,   495,  6582,  8773,  8778,  8782,  8786,  8790,  8794,  8798,  8802,  8806,  8810
  8814,  8818,  8822,  8826,  8830,  8834,  8838,  8842,  8846,  8850,  8854,  8858,  8862,  8866,  8870,  8874
  8878,  8882,  8886,  8890,  8894,  8898,  8902,  8906,  8910,  8914,  8918,  8922,  8926,  8930,  8934,  8938
  8942,  8946,  8950,  8954,  8958,  8962,  8966,  8970, 11966, 11970, 11974, 11978, 11982, 11986, 11990, 11994
 11998, 12002, 12006, 12010, 12014, 12018, 12022, 12026, 12030, 12034, 12038, 12042, 12046, 12050, 12054, 12058
 12062, 12066, 12070, 12074, 12078, 12082, 12086, 12090, 12094, 12098, 12102, 12106, 12110, 12114, 12118, 12122
 12126, 12130, 12134, 12138, 12142, 12146, 12150, 12154, 12158, 12162
*Elset, elset=PROFILE-R_8, instance=A65C-1
   45, 1465, 1467, 1469, 1471, 1473, 1475, 1477, 1479, 1481, 1483, 1485, 1487, 1489, 1491, 1493
 1495, 1497, 1499, 1501, 1503, 1505, 1507, 1509, 1511, 1513, 1515, 1517, 1519, 1521, 1523, 1525
 1527, 1529, 1531, 1533, 1535, 1537, 1539, 1541, 1543, 1545, 1547, 1549, 1551, 1553, 1555, 1557
 1559, 1561, 1563, 3565, 3567, 3569, 3571, 3573, 3575, 3577, 3579, 3581, 3583, 3585, 3587, 3589
 3591, 3593, 3595, 3597, 3599, 3601, 3603, 3605, 3607, 3609, 3611, 3613, 3615, 3617, 3619, 3621
 3623, 3625, 3627, 3629, 3631, 3633, 3635, 3637, 3639, 3641, 3643, 3645, 3647, 3649, 3651, 3653
 3655, 3657, 3659, 3661, 3663, 4565, 4567, 4569, 4571, 4573, 4575, 4577, 4579, 4581, 4583, 4585
 4587, 4589, 4591, 4593, 4595, 4597, 4599, 4601, 4603, 4605, 4607, 4609, 4611, 4613, 4615, 4617
 4619, 4621, 4623, 4625, 4627, 4629, 4631, 4633, 4635, 4637, 4639, 4641, 4643, 4645, 4647, 4649
 4651, 4653, 4655, 4657, 4659, 4661, 4663, 5265, 5267, 5269, 5271, 5273, 5275, 5277, 5279, 5281
 5283, 5285, 5287, 5289, 5291, 5293, 5295, 5297, 5299, 5301, 5303, 5305, 5307, 5309, 5311, 5313
 5315, 5317, 5319, 5321, 5323, 5325, 5327, 5329, 5331, 5333, 5335, 5337, 5339, 5341, 5343, 5345
 5347, 5349, 5351, 5353, 5355, 5357, 5359, 5361, 5363, 6265
*Nset, nset=PROFILE-R_9, instance=A65C-1
    13,    14,    19,   505,   506,   507,   508,   509,   510,   511,   512,   513,   514,   515,   516,   517
   518,   519,   520,   521,   522,   523,   524,   525,   526,   527,   528,   529,   530,   531,   532,   533
   534,   535,   536,   537,   538,   539,   540,   541,   542,   543,   544,   545,   546,   547,   548,   549
   550,   551,   552,   553,   560,   561,   562,   563,   564,   565,   566,   567,   568,   569,   570,   571
   572,   573,   574,   575,   576,   577,   578,   579,   580,   581,   582,   583,   584,   585,   586,   587
   588,   589,   590,   591,   592,   593,   594,   595,   596,   597,   598,   599,   600,   601,   602,   603
   604,   605,   606,   607,   608,  6622, 13368, 13371, 13374, 13377, 13380, 13383, 13386, 13389, 13392, 13395
 13398, 13401, 13404, 13407, 13410, 13413, 13416, 13419, 13422, 13425, 13428, 13431, 13434, 13437, 13440, 13443
 13446, 13449, 13452, 13455, 13458, 13461, 13464, 13467, 13470, 13473, 13476, 13479, 13482, 13485, 13488, 13491
 13494, 13497, 13500, 13503, 13506, 13509, 13512, 13515, 15859, 15862, 15865, 15868, 15871, 15874, 15877, 15880
 15883, 15886, 15889, 15892, 15895, 15898, 15901, 15904, 15907, 15910, 15913, 15916, 15919, 15922, 15925, 15928
 15931, 15934, 15937, 15940, 15943, 15946, 15949, 15952, 15955, 15958, 15961, 15964, 15967, 15970, 15973, 15976
 15979, 15982, 15985, 15988, 15991, 15994, 15997, 16000, 16003, 16005
*Elset, elset=PROFILE-R_9, instance=A65C-1
    64,  4466,  4468,  4470,  4472,  4474,  4476,  4478,  4480,  4482,  4484,  4486,  4488,  4490,  4492,  4494
  4496,  4498,  4500,  4502,  4504,  4506,  4508,  4510,  4512,  4514,  4516,  4518,  4520,  4522,  4524,  4526
  4528,  4530,  4532,  4534,  4536,  4538,  4540,  4542,  4544,  4546,  4548,  4550,  4552,  4554,  4556,  4558
  4560,  4562,  4564,  6166,  6168,  6170,  6172,  6174,  6176,  6178,  6180,  6182,  6184,  6186,  6188,  6190
  6192,  6194,  6196,  6198,  6200,  6202,  6204,  6206,  6208,  6210,  6212,  6214,  6216,  6218,  6220,  6222
  6224,  6226,  6228,  6230,  6232,  6234,  6236,  6238,  6240,  6242,  6244,  6246,  6248,  6250,  6252,  6254
  6256,  6258,  6260,  6262,  6264,  6279,  8193,  8196,  8203,  8204,  8209,  8211,  8214,  8216,  8217,  8237
  8240,  8242,  8347,  8651,  8694,  8696,  8717,  8721,  8725,  8736,  8737,  8739,  8744,  8750,  8755,  8803
  8877,  8962,  8964,  8967,  8969,  8982,  8985,  8987,  8988,  8996,  9000,  9101,  9103,  9104,  9107,  9109
  9123,  9179,  9183,  9224,  9281,  9361,  9368,  9374, 11338, 11339, 11364, 11439, 11461, 11462, 11466, 11471
 11473, 11489, 11522, 11540, 11558, 11564, 11574, 11596, 11600, 11607, 11609, 11612, 11614, 12208, 12218, 12222
 12223, 12397, 12399, 12400, 12402, 12679, 12693, 12706, 12803, 12805, 12806, 12808, 12810, 12815, 12816, 12819
 12838, 12843, 12844, 12850, 12854, 12857, 12859, 12860, 12862, 12864
*Nset, nset=nodes_R_5, instance=A65C-1
     1,     2,    16,   135,   136,   137,   138,   139,   140,   141,   142,   143,   144,   145,   146,   147
   148,   149,   150,   151,   152,   153,   154,   155,   156,   157,   158,   159,   160,   161,   162,   163
   164,   165,   166,   167,   168,   169,   170,   171,   172,   173,   174,   175,   176,   177,   178,   179
   180,   181,   182,   183,   349,   350,   351,   352,   353,   354,   355,   356,   357,   358,   359,   360
   361,   362,   363,   364,   365,   366,   367,   368,   369,   370,   371,   372,   373,   374,   375,   376
   377,   378,   379,   380,   381,   382,   383,   384,   385,   386,   387,   388,   389,   390,   391,   392
   393,   394,   395,   396,   397,  6493,  7575,  7578,  7581,  7584,  7587,  7590,  7593,  7596,  7599,  7602
  7605,  7608,  7611,  7614,  7617,  7620,  7623,  7626,  7629,  7632,  7635,  7638,  7641,  7644,  7647,  7650
  7653,  7656,  7659,  7662,  7665,  7668,  7671,  7674,  7677,  7680,  7683,  7686,  7689,  7692,  7695,  7698
  7701,  7704,  7707,  7710,  7713,  7716,  7719,  7722, 10776, 10779, 10782, 10785, 10788, 10791, 10794, 10797
 10800, 10803, 10806, 10809, 10812, 10815, 10818, 10821, 10824, 10827, 10830, 10833, 10836, 10839, 10842, 10845
 10848, 10851, 10854, 10857, 10860, 10863, 10866, 10869, 10872, 10875, 10878, 10881, 10884, 10887, 10890, 10893
 10896, 10899, 10902, 10905, 10908, 10911, 10914, 10917, 10920, 10922
*Nset, nset=nodes_R_6, instance=A65C-1
     7,     8,    15,    80,    81,    82,    83,    84,    85,    86,    87,    88,    89,    90,    91,    92
    93,    94,    95,    96,    97,    98,    99,   100,   101,   102,   103,   104,   105,   106,   107,   108
   109,   110,   111,   112,   113,   114,   115,   116,   117,   118,   119,   120,   121,   122,   123,   124
   125,   126,   127,   128,   300,   301,   302,   303,   304,   305,   306,   307,   308,   309,   310,   311
   312,   313,   314,   315,   316,   317,   318,   319,   320,   321,   322,   323,   324,   325,   326,   327
   328,   329,   330,   331,   332,   333,   334,   335,   336,   337,   338,   339,   340,   341,   342,   343
   344,   345,   346,   347,   348,  6526,  6623,  6627,  6631,  6635,  6639,  6643,  6647,  6651,  6655,  6659
  6663,  6667,  6671,  6675,  6679,  6683,  6687,  6691,  6695,  6699,  6703,  6707,  6711,  6715,  6719,  6723
  6727,  6731,  6735,  6739,  6743,  6747,  6751,  6755,  6759,  6763,  6767,  6771,  6775,  6779,  6783,  6787
  6791,  6795,  6799,  6803,  6807,  6811,  6815,  6819,  9830,  9834,  9838,  9842,  9846,  9850,  9854,  9858
  9862,  9866,  9870,  9874,  9878,  9882,  9886,  9890,  9894,  9898,  9902,  9906,  9910,  9914,  9918,  9922
  9926,  9930,  9934,  9938,  9942,  9946,  9950,  9954,  9958,  9962,  9966,  9970,  9974,  9978,  9982,  9986
  9990,  9994,  9998, 10002, 10006, 10010, 10014, 10018, 10022, 10026
*Nset, nset=nodes_R_7, instance=A65C-1
     9,    10,    17,   184,   185,   186,   187,   188,   189,   190,   191,   192,   193,   194,   195,   196
   197,   198,   199,   200,   201,   202,   203,   204,   205,   206,   207,   208,   209,   210,   211,   212
   213,   214,   215,   216,   217,   218,   219,   220,   221,   222,   223,   224,   225,   226,   227,   228
   229,   230,   231,   232,   398,   399,   400,   401,   402,   403,   404,   405,   406,   407,   408,   409
   410,   411,   412,   413,   414,   415,   416,   417,   418,   419,   420,   421,   422,   423,   424,   425
   426,   427,   428,   429,   430,   431,   432,   433,   434,   435,   436,   437,   438,   439,   440,   441
   442,   443,   444,   445,   446,  6581,  8626,  8629,  8632,  8635,  8638,  8641,  8644,  8647,  8650,  8653
  8656,  8659,  8662,  8665,  8668,  8671,  8674,  8677,  8680,  8683,  8686,  8689,  8692,  8695,  8698,  8701
  8704,  8707,  8710,  8713,  8716,  8719,  8722,  8725,  8728,  8731,  8734,  8737,  8740,  8743,  8746,  8749
  8752,  8755,  8758,  8761,  8764,  8767,  8770,  8772, 11819, 11822, 11825, 11828, 11831, 11834, 11837, 11840
 11843, 11846, 11849, 11852, 11855, 11858, 11861, 11864, 11867, 11870, 11873, 11876, 11879, 11882, 11885, 11888
 11891, 11894, 11897, 11900, 11903, 11906, 11909, 11912, 11915, 11918, 11921, 11924, 11927, 11930, 11933, 11936
 11939, 11942, 11945, 11948, 11951, 11954, 11957, 11960, 11963, 11965
*Nset, nset=nodes_R_8, instance=A65C-1
    11,    12,    18,   239,   240,   241,   242,   243,   244,   245,   246,   247,   248,   249,   250,   251
   252,   253,   254,   255,   256,   257,   258,   259,   260,   261,   262,   263,   264,   265,   266,   267
   268,   269,   270,   271,   272,   273,   274,   275,   276,   277,   278,   279,   280,   281,   282,   283
   284,   285,   286,   287,   447,   448,   449,   450,   451,   452,   453,   454,   455,   456,   457,   458
   459,   460,   461,   462,   463,   464,   465,   466,   467,   468,   469,   470,   471,   472,   473,   474
   475,   476,   477,   478,   479,   480,   481,   482,   483,   484,   485,   486,   487,   488,   489,   490
   491,   492,   493,   494,   495,  6582,  8773,  8778,  8782,  8786,  8790,  8794,  8798,  8802,  8806,  8810
  8814,  8818,  8822,  8826,  8830,  8834,  8838,  8842,  8846,  8850,  8854,  8858,  8862,  8866,  8870,  8874
  8878,  8882,  8886,  8890,  8894,  8898,  8902,  8906,  8910,  8914,  8918,  8922,  8926,  8930,  8934,  8938
  8942,  8946,  8950,  8954,  8958,  8962,  8966,  8970, 11966, 11970, 11974, 11978, 11982, 11986, 11990, 11994
 11998, 12002, 12006, 12010, 12014, 12018, 12022, 12026, 12030, 12034, 12038, 12042, 12046, 12050, 12054, 12058
 12062, 12066, 12070, 12074, 12078, 12082, 12086, 12090, 12094, 12098, 12102, 12106, 12110, 12114, 12118, 12122
 12126, 12130, 12134, 12138, 12142, 12146, 12150, 12154, 12158, 12162
*Nset, nset=nodes_R_9, instance=A65C-1
    13,    14,    19,   505,   506,   507,   508,   509,   510,   511,   512,   513,   514,   515,   516,   517
   518,   519,   520,   521,   522,   523,   524,   525,   526,   527,   528,   529,   530,   531,   532,   533
   534,   535,   536,   537,   538,   539,   540,   541,   542,   543,   544,   545,   546,   547,   548,   549
   550,   551,   552,   553,   560,   561,   562,   563,   564,   565,   566,   567,   568,   569,   570,   571
   572,   573,   574,   575,   576,   577,   578,   579,   580,   581,   582,   583,   584,   585,   586,   587
   588,   589,   590,   591,   592,   593,   594,   595,   596,   597,   598,   599,   600,   601,   602,   603
   604,   605,   606,   607,   608,  6622, 13368, 13371, 13374, 13377, 13380, 13383, 13386, 13389, 13392, 13395
 13398, 13401, 13404, 13407, 13410, 13413, 13416, 13419, 13422, 13425, 13428, 13431, 13434, 13437, 13440, 13443
 13446, 13449, 13452, 13455, 13458, 13461, 13464, 13467, 13470, 13473, 13476, 13479, 13482, 13485, 13488, 13491
 13494, 13497, 13500, 13503, 13506, 13509, 13512, 13515, 15859, 15862, 15865, 15868, 15871, 15874, 15877, 15880
 15883, 15886, 15889, 15892, 15895, 15898, 15901, 15904, 15907, 15910, 15913, 15916, 15919, 15922, 15925, 15928
 15931, 15934, 15937, 15940, 15943, 15946, 15949, 15952, 15955, 15958, 15961, 15964, 15967, 15970, 15973, 15976
 15979, 15982, 15985, 15988, 15991, 15994, 15997, 16000, 16003, 16005
*Nset, nset=postPartiti, instance=A65C-1
     1,     2,     3,     4,     5,     6,     7,     8,     9,    10,    11,    12,    13,    14,    15,    16
    17,    18,    19,    20,    21,    22,    23,    24,    25,    26,    27,    28,    29,    30,    31,    32
    33,    34,    35,    36,    37,    38,    39,    40,    41,    42,    43,    44,    45,    46,    47,    48
    49,    50,    51,    52,    53,    54,    55,    56,    57,    58,    59,    60,    61,    62,    63,    64
    65,    66,    67,    68,    69,    70,    71,    72,    73,    74,    75,    76,    77,    78,    79,    80
    81,    82,    83,    84,    85,    86,    87,    88,    89,    90,    91,    92,    93,    94,    95,    96
    97,    98,    99,   100,   101,   102,   103,   104,   105,   106,   107,   108,   109,   110,   111,   112
   113,   114,   115,   116,   117,   118,   119,   120,   121,   122,   123,   124,   125,   126,   127,   128
   129,   130,   131,   132,   133,   134,   135,   136,   137,   138,   139,   140,   141,   142,   143,   144
   145,   146,   147,   148,   149,   150,   151,   152,   153,   154,   155,   156,   157,   158,   159,   160
   161,   162,   163,   164,   165,   166,   167,   168,   169,   170,   171,   172,   173,   174,   175,   176
   177,   178,   179,   180,   181,   182,   183,   184,   185,   186,   187,   188,   189,   190,   191,   192
   193,   194,   195,   196,   197,   198,   199,   200,   201,   202,   203,   204,   205,   206,   207,   208
   209,   210,   211,   212,   213,   214,   215,   216,   217,   218,   219,   220,   221,   222,   223,   224
   225,   226,   227,   228,   229,   230,   231,   232,   233,   234,   235,   236,   237,   238,   239,   240
   241,   242,   243,   244,   245,   246,   247,   248,   249,   250,   251,   252,   253,   254,   255,   256
   257,   258,   259,   260,   261,   262,   263,   264,   265,   266,   267,   268,   269,   270,   271,   272
   273,   274,   275,   276,   277,   278,   279,   280,   281,   282,   283,   284,   285,   286,   287,   288
   289,   290,   291,   292,   293,   294,   295,   296,   297,   298,   299,   300,   301,   302,   303,   304
   305,   306,   307,   308,   309,   310,   311,   312,   313,   314,   315,   316,   317,   318,   319,   320
** ... 93 like lines cut
*Elset, elset=postPartiti, instance=A65C-1
     1,     2,     3,     4,     5,     6,     7,     8,     9,    10,    11,    12,    13,    14,    15,    16
    17,    18,    19,    20,    21,    22,    23,    24,    25,    26,    27,    28,    29,    30,    31,    32
    33,    34,    35,    36,    37,    38,    39,    40,    41,    42,    43,    44,    45,    46,    47,    48
    49,    50,    51,    52,    53,    54,    55,    56,    57,    58,    59,    60,    61,    62,    63,    64
    65,    67,    69,    71,    73,    75,    77,    79,    81,    83,    85,    87,    89,    91,    93,    95
    97,    99,   101,   103,   105,   107,   109,   111,   113,   115,   117,   119,   121,   123,   125,   127
   129,   131,   133,   135,   137,   139,   141,   143,   145,   147,   149,   151,   153,   155,   157,   159
   161,   163,   164,   165,   264,   265,   364,   365,   464,   465,   564,   565,   664,   665,   666,   668
   670,   672,   674,   676,   678,   680,   682,   684,   686,   688,   690,   692,   694,   696,   698,   700
   702,   704,   706,   708,   710,   712,   714,   716,   718,   720,   722,   724,   726,   728,   730,   732
   734,   736,   738,   740,   742,   744,   746,   748,   750,   752,   754,   756,   758,   760,   762,   764
   765,   767,   769,   771,   773,   775,   777,   779,   781,   783,   785,   787,   789,   791,   793,   795
   797,   799,   801,   803,   805,   807,   809,   811,   813,   815,   817,   819,   821,   823,   825,   827
   829,   831,   833,   835,   837,   839,   841,   843,   845,   847,   849,   851,   853,   855,   857,   859
   861,   863,   864,   865,   964,   965,  1064,  1065,  1164,  1165,  1264,  1265,  1364,  1365,  1366,  1368
  1370,  1372,  1374,  1376,  1378,  1380,  1382,  1384,  1386,  1388,  1390,  1392,  1394,  1396,  1398,  1400
  1402,  1404,  1406,  1408,  1410,  1412,  1414,  1416,  1418,  1420,  1422,  1424,  1426,  1428,  1430,  1432
  1434,  1436,  1438,  1440,  1442,  1444,  1446,  1448,  1450,  1452,  1454,  1456,  1458,  1460,  1462,  1464
  1465,  1467,  1469,  1471,  1473,  1475,  1477,  1479,  1481,  1483,  1485,  1487,  1489,  1491,  1493,  1495
  1497,  1499,  1501,  1503,  1505,  1507,  1509,  1511,  1513,  1515,  1517,  1519,  1521,  1523,  1525,  1527
** ... 86 like lines cut
*Nset, nset=prePartiti, instance=A65C-1
     1,     2,     3,     4,     5,     6,     7,     8,     9,    10,    11,    12,    13,    14,    15,    16
    17,    18,    19,    20,    21,    22,    23,    24,    25,    26,    27,    28,    29,    30,    31,    32
    33,    34,    35,    36,    37,    38,    39,    40,    41,    42,    43,    44,    45,    46,    47,    48
    49,    50,    51,    52,    53,    54,    55,    56,    57,    58,    59,    60,    61,    62,    63,    64
    65,    66,    67,    68,    69,    70,    71,    72,    73,    74,    75,    76,    77,    78,    79,   129
   130,   131,   132,   133,   134,   233,   234,   235,   236,   237,   238,   288,   289,   290,   291,   292
   293,   294,   295,   296,   297,   298,   299,   496,   497,   498,   499,   500,   501,   502,   503,   504
   554,   555,   556,   557,   558,   559,   609,   610,   611,   612,   613,   614,   615,   616,   617,   618
   619,   620,   621,   622,   623,   624,   625,   626,   627,   628,   629,   630,   631,   632,   633,   634
   635,   636,   637,   638,   639,   640,   641,   642,   643,   644,   645,   646,   647,   648,   649,   650
   651,   652,   653,   654,   655,   656,   657,   658,   659,   660,   661,   662,   663,   664,   665,   666
   667,   668,   669,   670,   671,   672,   673,   674,   675,   676,   677,   678,   679,   680,   681,   682
   683,   684,   685,   686,   687,   688,   689,   690,   691,   692,   693,   694,   695,   696,   697,   698
   699,   700,   701,   702,   703,   704,   705,   706,   707,   708,   709,   710,   711,   712,   713,   714
   715,   716,   717,   718,   719,   720,   721,   722,   723,   724,   725,   726,   727,   728,   729,   730
   731,   732,   733,   734,   735,   736,   737,   738,   739,   740,   741,   742,   743,   744,   745,   746
   747,   748,   749,   750,   751,   752,   753,   754,   755,   756,   757,   758,   759,   760,   761,   762
   763,   764,   765,   766,   767,   768,   769,   770,   771,   772,   773,   774,   775,   776,   777,   778
   779,   780,   781,   782,   783,   784,   785,   786,   787,   788,   789,   790,   791,   792,   793,   794
   795,   796,   797,   798,   799,   800,   801,   802,   803,   804,   805,   806,   807,   808,   809,   810
** ... 31 like lines cut
*Elset, elset=prePartiti, instance=A65C-1
     1,     2,     3,     4,     5,     6,     7,     8,     9,    10,    11,    12,    13,    14,    15,    16
    17,    18,    19,    20,    21,    22,    23,    24,    25,    26,    27,    28,    29,    30,    31,    32
    33,    34,    35,    36,    37,    38,    39,    40,    41,    42,    43,    44,    45,    46,    47,    48
    49,    50,    51,    52,    53,    54,    55,    56,    57,    58,    59,    60,    61,    62,    63,    64
    65,   164,   165,   264,   265,   364,   365,   464,   465,   564,   565,   664,   665,   764,   765,   864
   865,   964,   965,  1064,  1065,  1164,  1165,  1264,  1265,  1364,  1365,  1464,  1465,  1564,  1565,  1664
  1665,  1764,  1765,  1864,  1865,  1964,  1965,  2064,  2065,  2164,  2166,  2263,  2266,  2363,  2366,  2463
  2466,  2563,  2566,  2663,  2666,  2763,  2766,  2863,  2866,  2963,  2966,  3063,  3066,  3163,  3166,  3263
  3266,  3363,  3366,  3463,  3466,  3563,  3566,  3663,  3666,  3763,  3766,  3863,  3866,  3963,  3966,  4063
  4066,  4163,  4166,  4263,  4266,  4363,  4366,  4463,  4466,  4563,  4566,  4663,  4666,  4763,  4766,  4863
  4866,  4963,  4966,  5063,  5066,  5163,  5166,  5263,  5265,  5364,  5365,  5464,  5465,  5564,  5565,  5664
  5665,  5764,  5765,  5864,  5865,  5964,  5965,  6064,  6065,  6164,  6165,  6264,  6265,  6266,  6267,  6268
  6269,  6270,  6271,  6272,  6273,  6274,  6275,  6276,  6277,  6278,  6279,  6280,  6281,  6282,  6283,  6284
  6285,  6286,  6287,  6288,  6289,  6290,  6291,  6292,  6293,  6294,  6295,  6296,  6297,  6298,  6299,  6300
  6301,  6302,  6303,  6304,  6305,  6306,  6307,  6308,  6309,  6310,  6311,  6312,  6313,  6314,  6315,  6316
  6317,  6318,  6319,  6320,  6321,  6322,  6323,  6324,  6325,  6326,  6327,  6328,  6329,  6330,  6331,  6332
  6337,  6344,  6355,  6365,  6408,  6412,  6417,  6418,  6419,  6420,  6423,  6424,  6425,  6426,  6430,  6431
  6432,  6433,  6434,  6435,  6436,  6437,  6438,  6439,  6450,  6451,  6454,  6473,  6479,  6509,  6536,  6570
  6577,  6581,  6606,  6621,  6628,  6657,  6661,  6669,  6706,  6709,  6717,  6747,  6751,  6875,  6935,  6972
  6974,  6976,  6977,  6978,  6979,  6983,  6986,  6991,  6994,  6998,  7312,  7314,  7317,  7321,  7322,  7337
** ... 24 like lines cut
*Nset, nset=r_edges, instance=A65C-1
     1,     2,     7,     8,     9,    10,    11,    12,    13,    14,    15,    16,    17,    18,    19,    80
    81,    82,    83,    84,    85,    86,    87,    88,    89,    90,    91,    92,    93,    94,    95,    96
    97,    98,    99,   100,   101,   102,   103,   104,   105,   106,   107,   108,   109,   110,   111,   112
   113,   114,   115,   116,   117,   118,   119,   120,   121,   122,   123,   124,   125,   126,   127,   128
   135,   136,   137,   138,   139,   140,   141,   142,   143,   144,   145,   146,   147,   148,   149,   150
   151,   152,   153,   154,   155,   156,   157,   158,   159,   160,   161,   162,   163,   164,   165,   166
   167,   168,   169,   170,   171,   172,   173,   174,   175,   176,   177,   178,   179,   180,   181,   182
   183,   184,   185,   186,   187,   188,   189,   190,   191,   192,   193,   194,   195,   196,   197,   198
   199,   200,   201,   202,   203,   204,   205,   206,   207,   208,   209,   210,   211,   212,   213,   214
   215,   216,   217,   218,   219,   220,   221,   222,   223,   224,   225,   226,   227,   228,   229,   230
   231,   232,   239,   240,   241,   242,   243,   244,   245,   246,   247,   248,   249,   250,   251,   252
   253,   254,   255,   256,   257,   258,   259,   260,   261,   262,   263,   264,   265,   266,   267,   268
   269,   270,   271,   272,   273,   274,   275,   276,   277,   278,   279,   280,   281,   282,   283,   284
   285,   286,   287,   300,   301,   302,   303,   304,   305,   306,   307,   308,   309,   310,   311,   312
   313,   314,   315,   316,   317,   318,   319,   320,   321,   322,   323,   324,   325,   326,   327,   328
   329,   330,   331,   332,   333,   334,   335,   336,   337,   338,   339,   340,   341,   342,   343,   344
   345,   346,   347,   348,   349,   350,   351,   352,   353,   354,   355,   356,   357,   358,   359,   360
   361,   362,   363,   364,   365,   366,   367,   368,   369,   370,   371,   372,   373,   374,   375,   376
   377,   378,   379,   380,   381,   382,   383,   384,   385,   386,   387,   388,   389,   390,   391,   392
   393,   394,   395,   396,   397,   398,   399,   400,   401,   402,   403,   404,   405,   406,   407,   408
** ... 44 like lines cut
*Elset, elset=r_edges, instance=A65C-1
     1,    17,    30,    31,    44,    45,    64,    65,    67,    69,    71,    73,    75,    77,    79,    81
    83,    85,    87,    89,    91,    93,    95,    97,    99,   101,   103,   105,   107,   109,   111,   113
   115,   117,   119,   121,   123,   125,   127,   129,   131,   133,   135,   137,   139,   141,   143,   145
   147,   149,   151,   153,   155,   157,   159,   161,   163,   666,   668,   670,   672,   674,   676,   678
   680,   682,   684,   686,   688,   690,   692,   694,   696,   698,   700,   702,   704,   706,   708,   710
   712,   714,   716,   718,   720,   722,   724,   726,   728,   730,   732,   734,   736,   738,   740,   742
   744,   746,   748,   750,   752,   754,   756,   758,   760,   762,   764,   765,   767,   769,   771,   773
   775,   777,   779,   781,   783,   785,   787,   789,   791,   793,   795,   797,   799,   801,   803,   805
   807,   809,   811,   813,   815,   817,   819,   821,   823,   825,   827,   829,   831,   833,   835,   837
   839,   841,   843,   845,   847,   849,   851,   853,   855,   857,   859,   861,   863,  1366,  1368,  1370
  1372,  1374,  1376,  1378,  1380,  1382,  1384,  1386,  1388,  1390,  1392,  1394,  1396,  1398,  1400,  1402
  1404,  1406,  1408,  1410,  1412,  1414,  1416,  1418,  1420,  1422,  1424,  1426,  1428,  1430,  1432,  1434
  1436,  1438,  1440,  1442,  1444,  1446,  1448,  1450,  1452,  1454,  1456,  1458,  1460,  1462,  1464,  1465
  1467,  1469,  1471,  1473,  1475,  1477,  1479,  1481,  1483,  1485,  1487,  1489,  1491,  1493,  1495,  1497
  1499,  1501,  1503,  1505,  1507,  1509,  1511,  1513,  1515,  1517,  1519,  1521,  1523,  1525,  1527,  1529
  1531,  1533,  1535,  1537,  1539,  1541,  1543,  1545,  1547,  1549,  1551,  1553,  1555,  1557,  1559,  1561
  1563,  2066,  2068,  2070,  2072,  2074,  2076,  2078,  2080,  2082,  2084,  2086,  2088,  2090,  2092,  2094
  2096,  2098,  2100,  2102,  2104,  2106,  2108,  2110,  2112,  2114,  2116,  2118,  2120,  2122,  2124,  2126
  2128,  2130,  2132,  2134,  2136,  2138,  2140,  2142,  2144,  2146,  2148,  2150,  2152,  2154,  2156,  2158
  2160,  2162,  2164,  2165,  2167,  2169,  2171,  2173,  2175,  2177,  2179,  2181,  2183,  2185,  2187,  2189
** ... 44 like lines cut
*Elset, elset=_Surf-1_SPOS, internal, instance=A65C-1, generate
     1,  12877,      1
*Surface, type=ELEMENT, name=Surf-1
_Surf-1_SPOS, SPOS
*End Assembly
*Distribution Table, name=Ori-1-DiscOrient_Table
coord3D, coord3D
** 
** MATERIALS
** 
*Material, name=CF-R-E1_E2_100
*Elastic, type=ENGINEERING CONSTANTS
140000., 1400.,10000.,  0.02,   0.3,   0.3, 3500., 3300.
 3300.,
** 
** BOUNDARY CONDITIONS
** 
** Name: BC-1 Type: Displacement/Rotation
*Boundary
BC-Edges, 1, 1
BC-Edges, 2, 2
BC-Edges, 3, 3
BC-Edges, 4, 4
BC-Edges, 5, 5
BC-Edges, 6, 6
** ----------------------------------------------------------------
** 
** STEP: Step-1
** 
*Step, name=Step-1, nlgeom=NO
*Static
0.001, 1., 1e-05, 0.1
** 
** LOADS
** 
** Name: Load-1   Type: Pressure Using Field: AnalyticalField-1
*Dload
A65C-1.1, P, 0.0369954
A65C-1.2, P, 0.0595862
A65C-1.3, P, 0.050072
A65C-1.4, P, 0.0534359
A65C-1.5, P, 0.0223359
A65C-1.6, P, 0.0294793
A65C-1.7, P, 0.0187313
A65C-1.8, P, 0.0335181
A65C-1.9, P, 0.028905
A65C-1.10, P, 0.0314147
A65C-1.11, P, 0.0367344
A65C-1.12, P, 0.00642267
A65C-1.13, P, 0.0182976
A65C-1.14, P, 0.00814607
A65C-1.15, P, 0.0136557
A65C-1.16, P, 0.00786309
A65C-1.17, P, 0.150249
A65C-1.18, P, 0.155168
A65C-1.19, P, 0.1403
A65C-1.20, P, 0.0983093
** ... 12857 like lines cut
** 
** OUTPUT REQUESTS
** 
*Restart, write, frequency=0
** 
** FIELD OUTPUT: F-Output-1
** 
*Output, field, variable=PRESELECT
** 
** HISTORY OUTPUT: H-Output-1
** 
*Output, history, variable=PRESELECT
*End Step
